Version 4
SHEET 1 1060 680
WIRE 32 -112 -192 -112
WIRE 416 -112 32 -112
WIRE -1024 -64 -1264 -64
WIRE -800 -64 -960 -64
WIRE -640 -64 -720 -64
WIRE -640 0 -640 -64
WIRE -192 0 -192 -32
WIRE -192 0 -640 0
WIRE -640 64 -640 0
WIRE -1264 96 -1264 -64
WIRE -1312 112 -1440 112
WIRE 288 128 240 128
WIRE 416 128 416 -112
WIRE 512 128 416 128
WIRE 672 128 592 128
WIRE 96 144 -16 144
WIRE 416 160 416 128
WIRE 416 160 240 160
WIRE -192 176 -192 0
WIRE -112 176 -192 176
WIRE 32 176 32 -48
WIRE 32 176 -32 176
WIRE 96 176 32 176
WIRE 416 192 240 192
WIRE -1312 208 -1312 160
WIRE -1264 208 -1264 176
WIRE -1264 208 -1312 208
WIRE 416 208 416 192
WIRE 512 208 416 208
WIRE 672 208 672 192
WIRE 672 208 592 208
WIRE -1264 224 -1264 208
WIRE -1024 256 -1264 256
WIRE -816 256 -960 256
WIRE -640 256 -640 128
WIRE -640 256 -736 256
WIRE -1264 288 -1264 256
WIRE -640 288 -640 256
WIRE -288 288 -640 288
WIRE -112 288 -288 288
WIRE -16 288 -16 144
WIRE -16 288 -32 288
WIRE -1440 304 -1440 112
WIRE -1312 304 -1440 304
WIRE -1776 384 -1776 320
WIRE -1648 384 -1648 320
WIRE -1440 384 -1440 304
WIRE -1312 400 -1312 352
WIRE -1264 400 -1264 368
WIRE -1264 400 -1312 400
WIRE -288 416 -288 288
WIRE -16 416 -16 288
WIRE -1264 432 -1264 400
WIRE -1440 528 -1440 464
WIRE -288 576 -288 496
WIRE -16 576 -16 480
WIRE -16 576 -288 576
WIRE 416 576 416 208
WIRE 416 576 -16 576
FLAG -1776 384 0
FLAG -1776 240 5V
FLAG -1648 384 0
FLAG -1648 240 2.5V
FLAG 96 208 5V
FLAG 240 224 2.5V
FLAG -1440 528 0
FLAG -1264 432 0
FLAG -1264 224 0
FLAG 288 128 0
SYMBOL AutoGenerated\\OPA1637 160 176 R0
SYMATTR InstName U1
SYMBOL voltage -1776 224 R0
WINDOW 123 0 0 Left 0
WINDOW 39 0 0 Left 0
SYMATTR InstName V1
SYMATTR Value 5
SYMBOL voltage -1648 224 R0
WINDOW 123 0 0 Left 0
WINDOW 39 0 0 Left 0
SYMATTR InstName V2
SYMATTR Value 2.5
SYMBOL voltage -1440 368 R0
WINDOW 123 24 124 Left 2
WINDOW 39 0 0 Left 0
SYMATTR InstName V3
SYMATTR Value SINE(0 1 1k)
SYMATTR Value2 AC 1
SYMBOL e -1264 272 R0
SYMATTR InstName E1
SYMATTR Value 1
SYMBOL e -1264 80 R0
SYMATTR InstName E2
SYMATTR Value -1
SYMBOL res -704 -80 R90
WINDOW 0 0 56 VBottom 2
WINDOW 3 32 56 VTop 2
SYMATTR InstName R7
SYMATTR Value 1.1k
SYMBOL res -720 240 R90
WINDOW 0 0 56 VBottom 2
WINDOW 3 32 56 VTop 2
SYMATTR InstName R8
SYMATTR Value 1.1k
SYMBOL cap -656 64 R0
SYMATTR InstName C4
SYMATTR Value 6.8n
SYMBOL cap 16 -112 R0
SYMATTR InstName C1
SYMATTR Value 1n
SYMBOL res -208 -128 R0
SYMATTR InstName R1
SYMATTR Value 1.1k
SYMBOL res -16 160 R90
WINDOW 0 0 56 VBottom 2
WINDOW 3 32 56 VTop 2
SYMATTR InstName R2
SYMATTR Value 560
SYMBOL cap -32 416 R0
SYMATTR InstName C2
SYMATTR Value 1n
SYMBOL res -304 400 R0
SYMATTR InstName R3
SYMATTR Value 1.1k
SYMBOL res -16 272 R90
WINDOW 0 0 56 VBottom 2
WINDOW 3 32 56 VTop 2
SYMATTR InstName R4
SYMATTR Value 560
SYMBOL cap 656 128 R0
SYMATTR InstName C3
SYMATTR Value 39n
SYMBOL res 608 112 R90
WINDOW 0 0 56 VBottom 2
WINDOW 3 32 56 VTop 2
SYMATTR InstName R5
SYMATTR Value 47
SYMBOL res 608 192 R90
WINDOW 0 0 56 VBottom 2
WINDOW 3 32 56 VTop 2
SYMATTR InstName R6
SYMATTR Value 47
SYMBOL cap -960 -80 R90
WINDOW 0 0 32 VBottom 2
WINDOW 3 32 32 VTop 2
SYMATTR InstName C5
SYMATTR Value 47µ
SYMBOL cap -960 240 R90
WINDOW 0 0 32 VBottom 2
WINDOW 3 32 32 VTop 2
SYMATTR InstName C6
SYMATTR Value 47µ
TEXT -1810 552 Left 2 !.ac dec 10 1 10Meg
TEXT -1810 648 Left 2 !;tran 10m
